@<TRIPOS>MOLECULE
*****
 26 27 0 0 0
SMALL
GASTEIGER
Energy = 0

@<TRIPOS>ATOM
      1 C          -3.7525    2.1585    0.7578 C.ar    1  LIG1       -0.0617
      2 C          -2.7522    1.6217    1.5668 C.ar    1  LIG1       -0.0607
      3 C          -1.4770    1.3939    1.0446 C.ar    1  LIG1       -0.0480
      4 C          -1.1989    1.6941   -0.2932 C.ar    1  LIG1        0.0128
      5 C          -2.2040    2.2440   -1.0958 C.ar    1  LIG1       -0.0480
      6 C          -3.4784    2.4725   -0.5722 C.ar    1  LIG1       -0.0607
      7 S           0.4221    1.4196   -0.9876 S.3     1  LIG1       -0.0881
      8 C           0.6062   -0.3537   -0.7627 C.ar    1  LIG1        0.0319
      9 C          -0.2574   -1.2005   -1.4717 C.ar    1  LIG1       -0.0466
     10 C          -0.1673   -2.5820   -1.3271 C.ar    1  LIG1       -0.0589
     11 C           0.8035   -3.1316   -0.4921 C.ar    1  LIG1       -0.0397
     12 C           1.7269   -2.3173    0.1791 C.ar    1  LIG1        0.0432
     13 C           1.5918   -0.9141    0.0763 C.ar    1  LIG1        0.0860
     14 C           2.4768   -0.0666    0.8258 C.1     1  LIG1        0.1021
     15 N           2.5965   -2.9313    1.1011 N.pl3   1  LIG1       -0.3569
     16 N           3.2174    0.5848    1.4398 N.1     1  LIG1       -0.1908
     17 H          -4.7435    2.3392    1.1665 H       1  LIG1        0.0618
     18 H          -2.9620    1.3855    2.6070 H       1  LIG1        0.0618
     19 H          -0.7061    0.9878    1.6948 H       1  LIG1        0.0629
     20 H          -2.0031    2.5004   -2.1332 H       1  LIG1        0.0629
     21 H          -4.2551    2.8999   -1.2013 H       1  LIG1        0.0618
     22 H          -1.0210   -0.7890   -2.1293 H       1  LIG1        0.0629
     23 H          -0.8618   -3.2312   -1.8552 H       1  LIG1        0.0618
     24 H           0.8357   -4.2119   -0.3673 H       1  LIG1        0.0636
     25 H           2.8308   -3.8948    0.8792 H       1  LIG1        0.1424
     26 H           3.4234   -2.3918    1.3498 H       1  LIG1        0.1424
@<TRIPOS>BOND
     1     1     2   ar
     2     6     1   ar
     3     1    17    1
     4     2     3   ar
     5     2    18    1
     6     3     4   ar
     7     3    19    1
     8     4     5   ar
     9     4     7    1
    10     5     6   ar
    11     5    20    1
    12     6    21    1
    13     7     8    1
    14     8     9   ar
    15    13     8   ar
    16     9    10   ar
    17     9    22    1
    18    10    11   ar
    19    10    23    1
    20    11    12   ar
    21    11    24    1
    22    12    13   ar
    23    12    15    1
    24    13    14    1
    25    14    16    3
    26    15    25    1
    27    15    26    1
