@<TRIPOS>MOLECULE
*****
 26 27 0 0 0
SMALL
GASTEIGER
Energy = 0

@<TRIPOS>ATOM
      1 C          -2.8586    2.9104    0.9929 C.ar    1  LIG1       -0.0606
      2 C          -3.5270    1.8280    0.4239 C.ar    1  LIG1       -0.0467
      3 C          -2.8855    1.0166   -0.5223 C.ar    1  LIG1        0.0316
      4 C          -1.5563    1.2758   -0.8959 C.ar    1  LIG1        0.0267
      5 C          -0.9086    2.3868   -0.3309 C.ar    1  LIG1       -0.0469
      6 C          -1.5514    3.1933    0.6110 C.ar    1  LIG1       -0.0606
      7 S          -0.6444    0.3102   -2.1012 S.3     1  LIG1       -0.0870
      8 C           0.1633   -0.8936   -1.0375 C.ar    1  LIG1        0.0319
      9 C          -0.4974   -2.1118   -0.8281 C.ar    1  LIG1       -0.0466
     10 C           0.0609   -3.0905   -0.0101 C.ar    1  LIG1       -0.0589
     11 C           1.3022   -2.8746    0.5834 C.ar    1  LIG1       -0.0397
     12 C           2.0291   -1.7030    0.3316 C.ar    1  LIG1        0.0432
     13 C           1.4304   -0.6885   -0.4509 C.ar    1  LIG1        0.0860
     14 C           2.1446    0.5374   -0.6674 C.1     1  LIG1        0.1021
     15 N           3.2221   -1.5025    1.0524 N.pl3   1  LIG1       -0.3569
     16 N           2.7502    1.5154   -0.8311 N.1     1  LIG1       -0.1908
     17 BR         -3.9194   -0.3942   -1.2696 Br      1  LIG1       -0.0491
     18 H          -3.3615    3.5395    1.7233 H       1  LIG1        0.0618
     19 H          -4.5550    1.6285    0.7176 H       1  LIG1        0.0629
     20 H           0.1057    2.6486   -0.6261 H       1  LIG1        0.0629
     21 H          -1.0295    4.0463    1.0390 H       1  LIG1        0.0618
     22 H          -1.4605   -2.3089   -1.2933 H       1  LIG1        0.0629
     23 H          -0.4759   -4.0186    0.1717 H       1  LIG1        0.0618
     24 H           1.7066   -3.6383    1.2443 H       1  LIG1        0.0636
     25 H           3.7015   -2.3588    1.3167 H       1  LIG1        0.1424
     26 H           3.8653   -0.8194    0.6570 H       1  LIG1        0.1424
@<TRIPOS>BOND
     1     1     2   ar
     2     6     1   ar
     3     1    18    1
     4     2     3   ar
     5     2    19    1
     6     3     4   ar
     7     3    17    1
     8     4     5   ar
     9     4     7    1
    10     5     6   ar
    11     5    20    1
    12     6    21    1
    13     7     8    1
    14     8     9   ar
    15    13     8   ar
    16     9    10   ar
    17     9    22    1
    18    10    11   ar
    19    10    23    1
    20    11    12   ar
    21    11    24    1
    22    12    13   ar
    23    12    15    1
    24    13    14    1
    25    14    16    3
    26    15    25    1
    27    15    26    1
