@<TRIPOS>MOLECULE
*****
 30 31 0 0 0
SMALL
GASTEIGER
Energy = 0

@<TRIPOS>ATOM
      1 C          -2.4114    3.0032    0.9896 C.ar    1  LIG1       -0.0582
      2 C          -2.9858    1.7660    0.6844 C.ar    1  LIG1       -0.0188
      3 C          -2.3992    0.9222   -0.2676 C.ar    1  LIG1        0.1338
      4 C          -1.2107    1.3316   -0.9066 C.ar    1  LIG1        0.0544
      5 C          -0.6535    2.5831   -0.6033 C.ar    1  LIG1       -0.0445
      6 C          -1.2492    3.4131    0.3448 C.ar    1  LIG1       -0.0605
      7 S          -0.3773    0.3277   -2.1410 S.3     1  LIG1       -0.0844
      8 C           0.4860   -0.8353   -1.0774 C.ar    1  LIG1        0.0320
      9 C          -0.1277   -2.0751   -0.8537 C.ar    1  LIG1       -0.0466
     10 C           0.4947   -3.0418   -0.0697 C.ar    1  LIG1       -0.0589
     11 C           1.7352   -2.7750    0.5065 C.ar    1  LIG1       -0.0397
     12 C           2.3579   -1.5295    0.3408 C.ar    1  LIG1        0.0432
     13 C           1.7476   -0.5746   -0.5049 C.ar    1  LIG1        0.0860
     14 C           2.4195    0.6688   -0.7583 C.1     1  LIG1        0.1021
     15 N           3.6672   -1.3784    0.8379 N.pl3   1  LIG1       -0.3569
     16 N           2.9767    1.6757   -0.9210 N.1     1  LIG1       -0.1908
     17 O          -2.9084   -0.2997   -0.6290 O.3     1  LIG1       -0.4940
     18 C          -4.1565   -0.6865   -0.0704 C.3     1  LIG1        0.0788
     19 H          -2.8774    3.6499    1.7292 H       1  LIG1        0.0619
     20 H          -3.8947    1.4919    1.2094 H       1  LIG1        0.0654
     21 H           0.2512    2.9227   -1.1042 H       1  LIG1        0.0630
     22 H          -0.8054    4.3783    0.5759 H       1  LIG1        0.0618
     23 H          -1.0954   -2.2984   -1.3004 H       1  LIG1        0.0629
     24 H           0.0204   -4.0084    0.0807 H       1  LIG1        0.0618
     25 H           2.2207   -3.5557    1.0880 H       1  LIG1        0.0636
     26 H           3.8755   -1.9508    1.6508 H       1  LIG1        0.1424
     27 H           3.9801   -0.4181    0.9623 H       1  LIG1        0.1424
     28 H          -4.9458    0.0268   -0.3295 H       1  LIG1        0.0660
     29 H          -4.0783   -0.8173    1.0137 H       1  LIG1        0.0660
     30 H          -4.4292   -1.6544   -0.5020 H       1  LIG1        0.0660
@<TRIPOS>BOND
     1     1     2   ar
     2     6     1   ar
     3     1    19    1
     4     2     3   ar
     5     2    20    1
     6     3     4   ar
     7     3    17    1
     8     4     5   ar
     9     4     7    1
    10     5     6   ar
    11     5    21    1
    12     6    22    1
    13     7     8    1
    14     8     9   ar
    15    13     8   ar
    16     9    10   ar
    17     9    23    1
    18    10    11   ar
    19    10    24    1
    20    11    12   ar
    21    11    25    1
    22    12    13   ar
    23    12    15    1
    24    13    14    1
    25    14    16    3
    26    15    26    1
    27    15    27    1
    28    17    18    1
    29    18    28    1
    30    18    29    1
    31    18    30    1
