@<TRIPOS>MOLECULE
*****
 30 31 0 0 0
SMALL
GASTEIGER
Energy = 0

@<TRIPOS>ATOM
      1 C          -2.7479    2.3114    0.5996 C.ar    1  LIG1       -0.0199
      2 C          -2.9661    1.0768   -0.0121 C.ar    1  LIG1        0.1211
      3 C          -1.9907    0.5518   -0.8660 C.ar    1  LIG1       -0.0062
      4 C          -0.8003    1.2458   -1.1073 C.ar    1  LIG1        0.0162
      5 C          -0.5965    2.4855   -0.4975 C.ar    1  LIG1       -0.0478
      6 C          -1.5654    3.0143    0.3557 C.ar    1  LIG1       -0.0573
      7 S           0.4448    0.5892   -2.2048 S.3     1  LIG1       -0.0880
      8 C           0.9541   -0.8752   -1.2980 C.ar    1  LIG1        0.0319
      9 C           0.4833   -2.1083   -1.7696 C.ar    1  LIG1       -0.0466
     10 C           0.8183   -3.2888   -1.1132 C.ar    1  LIG1       -0.0589
     11 C           1.6490   -3.2500    0.0051 C.ar    1  LIG1       -0.0397
     12 C           2.1954   -2.0414    0.4607 C.ar    1  LIG1        0.0432
     13 C           1.8024   -0.8398   -0.1720 C.ar    1  LIG1        0.0860
     14 C           2.3049    0.4116    0.3228 C.1     1  LIG1        0.1021
     15 N           2.9292   -2.0635    1.6623 N.pl3   1  LIG1       -0.3569
     16 N           2.7460    1.4054    0.7331 N.1     1  LIG1       -0.1908
     17 O          -4.0757    0.2903    0.1370 O.3     1  LIG1       -0.4951
     18 C          -5.1019    0.7817    0.9902 C.3     1  LIG1        0.0788
     19 H          -3.4758    2.7562    1.2698 H       1  LIG1        0.0654
     20 H          -2.1751   -0.4070   -1.3436 H       1  LIG1        0.0665
     21 H           0.3199    3.0456   -0.6725 H       1  LIG1        0.0629
     22 H          -1.3962    3.9765    0.8332 H       1  LIG1        0.0619
     23 H          -0.1662   -2.1560   -2.6422 H       1  LIG1        0.0629
     24 H           0.4227   -4.2389   -1.4644 H       1  LIG1        0.0618
     25 H           1.8725   -4.1802    0.5232 H       1  LIG1        0.0636
     26 H           3.4025   -2.9428    1.8493 H       1  LIG1        0.1424
     27 H           3.5410   -1.2652    1.8180 H       1  LIG1        0.1424
     28 H          -5.9091    0.0429    1.0016 H       1  LIG1        0.0660
     29 H          -5.5157    1.7211    0.6089 H       1  LIG1        0.0660
     30 H          -4.7407    0.8958    2.0176 H       1  LIG1        0.0660
@<TRIPOS>BOND
     1     1     2   ar
     2     6     1   ar
     3     1    19    1
     4     2     3   ar
     5     2    17    1
     6     3     4   ar
     7     3    20    1
     8     4     5   ar
     9     4     7    1
    10     5     6   ar
    11     5    21    1
    12     6    22    1
    13     7     8    1
    14     8     9   ar
    15    13     8   ar
    16     9    10   ar
    17     9    23    1
    18    10    11   ar
    19    10    24    1
    20    11    12   ar
    21    11    25    1
    22    12    13   ar
    23    12    15    1
    24    13    14    1
    25    14    16    3
    26    15    26    1
    27    15    27    1
    28    17    18    1
    29    18    28    1
    30    18    29    1
    31    18    30    1
