@<TRIPOS>MOLECULE
*****
 26 27 0 0 0
SMALL
GASTEIGER
Energy = 0

@<TRIPOS>ATOM
      1 C          -2.8975    2.8680    0.9897 C.ar    1  LIG1       -0.0603
      2 C          -3.5234    1.7543    0.4323 C.ar    1  LIG1       -0.0423
      3 C          -2.8540    0.9642   -0.5111 C.ar    1  LIG1        0.0547
      4 C          -1.5396    1.2789   -0.8962 C.ar    1  LIG1        0.0311
      5 C          -0.9331    2.4169   -0.3411 C.ar    1  LIG1       -0.0466
      6 C          -1.6044    3.2013    0.5997 C.ar    1  LIG1       -0.0606
      7 S          -0.6040    0.3424   -2.1060 S.3     1  LIG1       -0.0866
      8 C           0.1793   -0.8865   -1.0537 C.ar    1  LIG1        0.0319
      9 C          -0.4805   -2.1131   -0.8975 C.ar    1  LIG1       -0.0466
     10 C           0.0613   -3.1118   -0.0928 C.ar    1  LIG1       -0.0589
     11 C           1.2853   -2.9069    0.5397 C.ar    1  LIG1       -0.0397
     12 C           2.0114   -1.7242    0.3427 C.ar    1  LIG1        0.0432
     13 C           1.4271   -0.6901   -0.4244 C.ar    1  LIG1        0.0860
     14 C           2.1343    0.5491   -0.5802 C.1     1  LIG1        0.1021
     15 N           3.1836   -1.5387    1.1007 N.pl3   1  LIG1       -0.3569
     16 N           2.7319    1.5389   -0.6955 N.1     1  LIG1       -0.1908
     17 CL         -3.7288   -0.3731   -1.1741 Cl      1  LIG1       -0.0824
     18 H          -3.4224    3.4805    1.7193 H       1  LIG1        0.0618
     19 H          -4.5399    1.5089    0.7310 H       1  LIG1        0.0632
     20 H           0.0705    2.7142   -0.6417 H       1  LIG1        0.0629
     21 H          -1.1152    4.0771    1.0215 H       1  LIG1        0.0618
     22 H          -1.4311   -2.2995   -1.3929 H       1  LIG1        0.0629
     23 H          -0.4751   -4.0471    0.0484 H       1  LIG1        0.0618
     24 H           1.6765   -3.6877    1.1885 H       1  LIG1        0.0636
     25 H           3.6610   -2.4003    1.3516 H       1  LIG1        0.1424
     26 H           3.8330   -0.8414    0.7421 H       1  LIG1        0.1424
@<TRIPOS>BOND
     1     1     2   ar
     2     6     1   ar
     3     1    18    1
     4     2     3   ar
     5     2    19    1
     6     3     4   ar
     7     3    17    1
     8     4     5   ar
     9     4     7    1
    10     5     6   ar
    11     5    20    1
    12     6    21    1
    13     7     8    1
    14     8     9   ar
    15    13     8   ar
    16     9    10   ar
    17     9    22    1
    18    10    11   ar
    19    10    23    1
    20    11    12   ar
    21    11    24    1
    22    12    13   ar
    23    12    15    1
    24    13    14    1
    25    14    16    3
    26    15    25    1
    27    15    26    1
