@<TRIPOS>MOLECULE
*****
 26 27 0 0 0
SMALL
GASTEIGER
Energy = 0

@<TRIPOS>ATOM
      1 C          -2.5444    2.6455    1.1809 C.ar    1  LIG1       -0.0433
      2 C          -2.7107    1.2827    0.9436 C.ar    1  LIG1        0.0420
      3 C          -1.9641    0.6348   -0.0409 C.ar    1  LIG1       -0.0296
      4 C          -1.0281    1.3529   -0.7924 C.ar    1  LIG1        0.0141
      5 C          -0.8686    2.7241   -0.5572 C.ar    1  LIG1       -0.0479
      6 C          -1.6223    3.3685    0.4266 C.ar    1  LIG1       -0.0593
      7 S          -0.0547    0.5842   -2.0785 S.3     1  LIG1       -0.0881
      8 C           0.5554   -0.8918   -1.2592 C.ar    1  LIG1        0.0319
      9 C           0.0314   -2.1151   -1.7004 C.ar    1  LIG1       -0.0466
     10 C           0.4288   -3.3086   -1.1050 C.ar    1  LIG1       -0.0589
     11 C           1.3730   -3.2922   -0.0802 C.ar    1  LIG1       -0.0397
     12 C           1.9714   -2.0940    0.3356 C.ar    1  LIG1        0.0432
     13 C           1.5218   -0.8796   -0.2315 C.ar    1  LIG1        0.0860
     14 C           2.0838    0.3606    0.2257 C.1     1  LIG1        0.1021
     15 N           2.8252   -2.1405    1.4536 N.pl3   1  LIG1       -0.3569
     16 N           2.5726    1.3452    0.6018 N.1     1  LIG1       -0.1908
     17 CL         -3.8521    0.3891    1.8720 Cl      1  LIG1       -0.0835
     18 H          -3.1280    3.1479    1.9477 H       1  LIG1        0.0632
     19 H          -2.1218   -0.4253   -0.2163 H       1  LIG1        0.0643
     20 H          -0.1489    3.3027   -1.1339 H       1  LIG1        0.0629
     21 H          -1.4863    4.4326    0.6043 H       1  LIG1        0.0618
     22 H          -0.7072   -2.1457   -2.4996 H       1  LIG1        0.0629
     23 H          -0.0055   -4.2510   -1.4299 H       1  LIG1        0.0618
     24 H           1.6452   -4.2325    0.3948 H       1  LIG1        0.0636
     25 H           3.3086   -3.0255    1.5784 H       1  LIG1        0.1424
     26 H           3.4566   -1.3486    1.5599 H       1  LIG1        0.1424
@<TRIPOS>BOND
     1     1     2   ar
     2     6     1   ar
     3     1    18    1
     4     2     3   ar
     5     2    17    1
     6     3     4   ar
     7     3    19    1
     8     4     5   ar
     9     4     7    1
    10     5     6   ar
    11     5    20    1
    12     6    21    1
    13     7     8    1
    14     8     9   ar
    15    13     8   ar
    16     9    10   ar
    17     9    22    1
    18    10    11   ar
    19    10    23    1
    20    11    12   ar
    21    11    24    1
    22    12    13   ar
    23    12    15    1
    24    13    14    1
    25    14    16    3
    26    15    25    1
    27    15    26    1
