@<TRIPOS>MOLECULE
****
32 33 1 0 0
SMALL
USER_CHARGES


@<TRIPOS>ATOM
      1 C          -3.7857   -3.7411    0.0478 C.ar      1     ****    0.0000
      2 C          -3.4540   -5.1912    0.1905 C.ar      1     ****    0.0000
      3 C          -1.9907   -5.5511    0.1713 C.ar      1     ****    0.0000
      4 C          -1.0144   -4.4279    0.3088 C.ar      1     ****    0.0000
      5 C          -1.4178   -3.1312    0.2752 C.ar      1     ****    0.0000
      6 C          -2.8421   -2.7659    0.0775 C.ar      1     ****    0.0000
      7 C          -0.3747   -2.0549    0.3549 C.2       1     ****    0.0000
      8 N          -0.6746   -0.5405    0.8111 N.2       1     ****    0.0000
      9 N           0.2481    0.4079    0.5294 N.am      1     ****    0.0000
     10 C           0.6133    0.7859   -0.7377 C.2       1     ****    0.0000
     11 N           1.7911    1.4225   -0.8619 N.am      1     ****    0.0000
     12 C           2.0513    2.7181   -0.4177 C.ar      1     ****    0.0000
     13 S          -0.2037    0.4854   -2.0542 S.2       1     ****    0.0000
     14 C           3.3592    3.2330   -0.6031 C.ar      1     ****    0.0000
     15 C           3.6765    4.5164   -0.1784 C.ar      1     ****    0.0000
     16 C           2.6979    5.3155    0.4335 C.ar      1     ****    0.0000
     17 C           1.3986    4.8212    0.6200 C.ar      1     ****    0.0000
     18 C           1.0730    3.5355    0.2036 C.ar      1     ****    0.0000
     19 O          -3.2156   -1.4695   -0.0946 O.3       1     ****    0.0000
     20 Cl          3.0950    6.9108    0.9561 Cl        1     ****    0.0000
     21 H          -4.8373   -3.4646   -0.1372 H         1     ****    0.0000
     22 H          -4.1351   -5.8919   -0.3247 H         1     ****    0.0000
     23 H          -1.6799   -6.4170   -0.4383 H         1     ****    0.0000
     24 H           0.0537   -4.6799    0.4116 H         1     ****    0.0000
     25 H           0.6846   -2.2693    0.1406 H         1     ****    0.0000
     26 H           0.7804    0.8207    1.2841 H         1     ****    0.0000
     27 H           2.5818    0.9058   -1.3202 H         1     ****    0.0000
     28 H           4.1337    2.6135   -1.0840 H         1     ****    0.0000
     29 H           4.6998    4.8983   -0.3272 H         1     ****    0.0000
     30 H           0.6245    5.4464    1.0943 H         1     ****    0.0000
     31 H           0.0450    3.1704    0.3548 H         1     ****    0.0000
     32 H          -4.1700   -1.4296   -0.2678 H         1     ****    0.0000
@<TRIPOS>BOND
     1     1     2     2
     2     1     6     1
     3     1    21     1
     4     2     3     1
     5     2    22     1
     6     3     4     2
     7     3    23     1
     8     4     5     1
     9     4    24     1
    10     5     6     2
    11     5     7     1
    12     6    19     1
    13     7     8     2
    14     7    25     1
    15     8     9     1
    16     9    10     1
    17     9    26     1
    18    10    11     1
    19    10    13     2
    20    11    12     1
    21    11    27     1
    22    12    14     2
    23    12    18     1
    24    14    15     1
    25    14    28     1
    26    15    16     2
    27    15    29     1
    28    16    17     1
    29    16    20     1
    30    17    18     2
    31    17    30     1
    32    18    31     1
    33    19    32     1
