@<TRIPOS>MOLECULE
****
33 34 1 0 0
SMALL
USER_CHARGES


@<TRIPOS>ATOM
      1 C          -3.7075   -3.4412    0.1249 C.ar      1     ****    0.0000
      2 C          -3.3429   -4.8514   -0.2334 C.ar      1     ****    0.0000
      3 C          -1.9297   -5.2597    0.0946 C.ar      1     ****    0.0000
      4 C          -0.8924   -4.1860    0.1193 C.ar      1     ****    0.0000
      5 C          -1.2737   -2.8902    0.2517 C.ar      1     ****    0.0000
      6 C          -2.7087   -2.5438    0.3246 C.ar      1     ****    0.0000
      7 C          -0.2332   -1.8139    0.3234 C.2       1     ****    0.0000
      8 N          -0.5646   -0.2553    0.5962 N.2       1     ****    0.0000
      9 N           0.4227    0.6495    0.4012 N.am      1     ****    0.0000
     10 C           0.8924    1.0197   -0.8334 C.2       1     ****    0.0000
     11 N           2.0796    1.6504   -0.8680 N.am      1     ****    0.0000
     12 C           2.3122    2.9507   -0.4207 C.ar      1     ****    0.0000
     13 S           0.1789    0.7160   -2.2083 S.2       1     ****    0.0000
     14 C           3.6311    3.4608   -0.5235 C.ar      1     ****    0.0000
     15 C           3.9228    4.7501   -0.0978 C.ar      1     ****    0.0000
     16 C           2.9080    5.5583    0.4385 C.ar      1     ****    0.0000
     17 C           1.5984    5.0678    0.5468 C.ar      1     ****    0.0000
     18 C           1.2972    3.7781    0.1238 C.ar      1     ****    0.0000
     19 O          -4.2942   -5.7980   -0.4393 O.3       1     ****    0.0000
     20 O          -5.0102   -3.0569    0.1821 O.3       1     ****    0.0000
     21 Cl          3.2736    7.1596    0.9656 Cl        1     ****    0.0000
     22 H          -1.7563   -6.1841    0.6683 H         1     ****    0.0000
     23 H           0.1704   -4.4670    0.0545 H         1     ****    0.0000
     24 H          -2.9870   -1.4987    0.5375 H         1     ****    0.0000
     25 H           0.8353   -2.0384    0.1788 H         1     ****    0.0000
     26 H           0.9171    1.0311    1.1969 H         1     ****    0.0000
     27 H           2.9005    1.1256   -1.2594 H         1     ****    0.0000
     28 H           4.4342    2.8344   -0.9448 H         1     ****    0.0000
     29 H           4.9541    5.1292   -0.1870 H         1     ****    0.0000
     30 H           0.7973    5.7002    0.9637 H         1     ****    0.0000
     31 H           0.2605    3.4169    0.2113 H         1     ****    0.0000
     32 H          -3.9083   -6.6677   -0.2452 H         1     ****    0.0000
     33 H          -5.0528   -2.0973    0.3237 H         1     ****    0.0000
@<TRIPOS>BOND
     1     1     2     2
     2     1     6     1
     3     1    20     1
     4     2     3     1
     5     2    19     1
     6     3     4     2
     7     3    22     1
     8     4     5     1
     9     4    23     1
    10     5     6     2
    11     5     7     1
    12     6    24     1
    13     7     8     2
    14     7    25     1
    15     8     9     1
    16     9    10     1
    17     9    26     1
    18    10    11     1
    19    10    13     2
    20    11    12     1
    21    11    27     1
    22    12    14     2
    23    12    18     1
    24    14    15     1
    25    14    28     1
    26    15    16     2
    27    15    29     1
    28    16    17     1
    29    16    21     1
    30    17    18     2
    31    17    30     1
    32    18    31     1
    33    19    32     1
    34    20    33     1
