@<TRIPOS>MOLECULE
****
38 40 1 0 0
SMALL
USER_CHARGES


@<TRIPOS>ATOM
      1 C           2.8633   -4.0796   -0.3057 C.ar      1     ****    0.0000
      2 C           2.2801   -5.3447   -0.3717 C.ar      1     ****    0.0000
      3 C           0.9322   -5.5032   -0.0457 C.ar      1     ****    0.0000
      4 C           0.1666   -4.3872    0.2883 C.ar      1     ****    0.0000
      5 C           0.7283   -3.0993    0.2994 C.ar      1     ****    0.0000
      6 C           2.1127   -2.9550    0.0693 C.ar      1     ****    0.0000
      7 C          -0.1905   -1.9633    0.4825 C.2       1     ****    0.0000
      8 N           0.0600   -0.7560    0.1431 N.2       1     ****    0.0000
      9 N          -0.8716    0.2182    0.2623 N.am      1     ****    0.0000
     10 C          -1.3713    0.9007   -0.8180 C.2       1     ****    0.0000
     11 N          -2.5795    1.5404   -0.6613 N.am      1     ****    0.0000
     12 C          -2.7508    2.8926   -0.3472 C.ar      1     ****    0.0000
     13 S          -0.7047    0.9413   -2.2498 S.2       1     ****    0.0000
     14 C          -4.0760    3.3887   -0.2833 C.ar      1     ****    0.0000
     15 C          -4.3117    4.7289   -0.0051 C.ar      1     ****    0.0000
     16 C          -3.2358    5.6007    0.2215 C.ar      1     ****    0.0000
     17 C          -1.9198    5.1192    0.1735 C.ar      1     ****    0.0000
     18 C          -1.6715    3.7796   -0.1058 C.ar      1     ****    0.0000
     19 C           2.8254   -1.6810    0.2693 C.ar      1     ****    0.0000
     20 C           3.8812   -1.2089   -0.4654 C.ar      1     ****    0.0000
     21 C           4.2124    0.0743    0.0698 C.ar      1     ****    0.0000
     22 C           3.3414    0.2855    1.0949 C.ar      1     ****    0.0000
     23 O           2.4955   -0.7707    1.2384 O.2       1     ****    0.0000
     24 H           3.9442   -3.9923   -0.5000 H         1     ****    0.0000
     25 H           2.8883   -6.2216   -0.6465 H         1     ****    0.0000
     26 H           0.4687   -6.5026   -0.0832 H         1     ****    0.0000
     27 H          -0.9093   -4.5295    0.4842 H         1     ****    0.0000
     28 H          -1.2048   -2.1557    0.8724 H         1     ****    0.0000
     29 H          -1.3165    0.3752    1.1558 H         1     ****    0.0000
     30 H          -3.4500    0.9747   -0.8183 H         1     ****    0.0000
     31 H          -4.9282    2.7155   -0.4715 H         1     ****    0.0000
     32 H          -5.3450    5.1112    0.0276 H         1     ****    0.0000
     33 H          -3.4258    6.6658    0.4323 H         1     ****    0.0000
     34 H          -1.0792    5.8101    0.3501 H         1     ****    0.0000
     35 H          -0.6298    3.4240   -0.1444 H         1     ****    0.0000
     36 H           4.3702   -1.6959   -1.3174 H         1     ****    0.0000
     37 H           5.0032    0.7495   -0.2756 H         1     ****    0.0000
     38 H           3.2262    1.1220    1.7903 H         1     ****    0.0000
@<TRIPOS>BOND
     1     1     2     2
     2     1     6     1
     3     1    24     1
     4     2     3     1
     5     2    25     1
     6     3     4     2
     7     3    26     1
     8     4     5     1
     9     4    27     1
    10     5     6     2
    11     5     7     1
    12     6    19     1
    13     7     8     2
    14     7    28     1
    15     8     9     1
    16     9    10     1
    17     9    29     1
    18    10    11     1
    19    10    13     2
    20    11    12     1
    21    11    30     1
    22    12    14     2
    23    12    18     1
    24    14    15     1
    25    14    31     1
    26    15    16     2
    27    15    32     1
    28    16    17     1
    29    16    33     1
    30    17    18     2
    31    17    34     1
    32    18    35     1
    33    19    20     2
    34    19    23     1
    35    20    21     1
    36    20    36     1
    37    21    22     2
    38    21    37     1
    39    22    23     1
    40    22    38     1
