@<TRIPOS>MOLECULE
*****
 29 30 0 0 0
SMALL
GASTEIGER
Energy = 0

@<TRIPOS>ATOM
      1 C          -2.7274    2.8627    1.0880 C.ar    1  LIG1       -0.0614
      2 C          -3.3342    1.6585    0.7337 C.ar    1  LIG1       -0.0578
      3 C          -2.7584    0.8108   -0.2313 C.ar    1  LIG1       -0.0367
      4 C          -1.5279    1.1760   -0.8122 C.ar    1  LIG1        0.0157
      5 C          -0.9431    2.4045   -0.4646 C.ar    1  LIG1       -0.0477
      6 C          -1.5349    3.2397    0.4830 C.ar    1  LIG1       -0.0607
      7 S          -0.6785    0.1789   -2.0380 S.3     1  LIG1       -0.0878
      8 C           0.2034   -0.9879   -0.9943 C.ar    1  LIG1        0.0319
      9 C          -0.3583   -2.2652   -0.8568 C.ar    1  LIG1       -0.0466
     10 C           0.2548   -3.2284   -0.0602 C.ar    1  LIG1       -0.0589
     11 C           1.4556   -2.9359    0.5817 C.ar    1  LIG1       -0.0397
     12 C           2.0898   -1.6991    0.3992 C.ar    1  LIG1        0.0432
     13 C           1.4318   -0.7042   -0.3611 C.ar    1  LIG1        0.0860
     14 C           2.0576    0.5781   -0.5180 C.1     1  LIG1        0.1021
     15 N           3.2432   -1.4340    1.1624 N.pl3   1  LIG1       -0.3569
     16 N           2.6067    1.5949   -0.6402 N.1     1  LIG1       -0.1908
     17 C          -3.4780   -0.4668   -0.5647 C.3     1  LIG1       -0.0387
     18 H          -3.1901    3.5086    1.8297 H       1  LIG1        0.0618
     19 H          -4.2727    1.3854    1.2126 H       1  LIG1        0.0621
     20 H          -0.0148    2.7287   -0.9313 H       1  LIG1        0.0629
     21 H          -1.0616    4.1824    0.7453 H       1  LIG1        0.0618
     22 H          -1.2899   -2.5168   -1.3596 H       1  LIG1        0.0629
     23 H          -0.2073   -4.2042    0.0682 H       1  LIG1        0.0618
     24 H           1.9034   -3.6904    1.2250 H       1  LIG1        0.0636
     25 H           3.7861   -2.2581    1.4042 H       1  LIG1        0.1424
     26 H           3.8353   -0.6810    0.8176 H       1  LIG1        0.1424
     27 H          -4.5423   -0.3949   -0.3136 H       1  LIG1        0.0278
     28 H          -3.0533   -1.2979    0.0052 H       1  LIG1        0.0278
     29 H          -3.4302   -0.6889   -1.6349 H       1  LIG1        0.0278
@<TRIPOS>BOND
     1     1     2   ar
     2     6     1   ar
     3     1    18    1
     4     2     3   ar
     5     2    19    1
     6     3     4   ar
     7     3    17    1
     8     4     5   ar
     9     4     7    1
    10     5     6   ar
    11     5    20    1
    12     6    21    1
    13     7     8    1
    14     8     9   ar
    15    13     8   ar
    16     9    10   ar
    17     9    22    1
    18    10    11   ar
    19    10    23    1
    20    11    12   ar
    21    11    24    1
    22    12    13   ar
    23    12    15    1
    24    13    14    1
    25    14    16    3
    26    15    25    1
    27    15    26    1
    28    17    27    1
    29    17    28    1
    30    17    29    1
