@<TRIPOS>MOLECULE
*****
 29 30 0 0 0
SMALL
GASTEIGER
Energy = 0

@<TRIPOS>ATOM
      1 C          -2.7290    2.5500   -0.8847 C.ar    1  LIG1       -0.0588
      2 C          -3.1069    1.3339   -0.3042 C.ar    1  LIG1       -0.0494
      3 C          -2.2527    0.7284    0.6286 C.ar    1  LIG1       -0.0451
      4 C          -1.0455    1.3371    0.9928 C.ar    1  LIG1        0.0130
      5 C          -0.6959    2.5641    0.4233 C.ar    1  LIG1       -0.0480
      6 C          -1.5322    3.1654   -0.5176 C.ar    1  LIG1       -0.0605
      7 S           0.0405    0.5795    2.1903 S.3     1  LIG1       -0.0881
      8 C           0.5784   -0.8722    1.2787 C.ar    1  LIG1        0.0319
      9 C          -0.0007   -2.0967    1.6386 C.ar    1  LIG1       -0.0466
     10 C           0.3463   -3.2654    0.9675 C.ar    1  LIG1       -0.0589
     11 C           1.2949   -3.2246   -0.0527 C.ar    1  LIG1       -0.0397
     12 C           1.9464   -2.0292   -0.3894 C.ar    1  LIG1        0.0432
     13 C           1.5467   -0.8357    0.2546 C.ar    1  LIG1        0.0860
     14 C           2.1664    0.4049   -0.1204 C.1     1  LIG1        0.1021
     15 N           2.8045   -2.0404   -1.5060 N.pl3   1  LIG1       -0.3569
     16 N           2.7054    1.3865   -0.4308 N.1     1  LIG1       -0.1908
     17 C          -4.3789    0.6579   -0.7222 C.3     1  LIG1       -0.0397
     18 H          -3.3664    3.0273   -1.6257 H       1  LIG1        0.0620
     19 H          -2.5364   -0.2223    1.0734 H       1  LIG1        0.0631
     20 H           0.2359    3.0558    0.6948 H       1  LIG1        0.0629
     21 H          -1.2464    4.1126   -0.9681 H       1  LIG1        0.0618
     22 H          -0.7424   -2.1459    2.4345 H       1  LIG1        0.0629
     23 H          -0.1298   -4.2072    1.2301 H       1  LIG1        0.0618
     24 H           1.5285   -4.1430   -0.5872 H       1  LIG1        0.0636
     25 H           3.2533   -2.9343   -1.6825 H       1  LIG1        0.1424
     26 H           3.4660   -1.2690   -1.5591 H       1  LIG1        0.1424
     27 H          -5.1527    1.3962   -0.9573 H       1  LIG1        0.0278
     28 H          -4.7688    0.0240    0.0812 H       1  LIG1        0.0278
     29 H          -4.1997    0.0374   -1.6056 H       1  LIG1        0.0278
@<TRIPOS>BOND
     1     1     2   ar
     2     6     1   ar
     3     1    18    1
     4     2     3   ar
     5     2    17    1
     6     3     4   ar
     7     3    19    1
     8     4     5   ar
     9     4     7    1
    10     5     6   ar
    11     5    20    1
    12     6    21    1
    13     7     8    1
    14     8     9   ar
    15    13     8   ar
    16     9    10   ar
    17     9    22    1
    18    10    11   ar
    19    10    23    1
    20    11    12   ar
    21    11    24    1
    22    12    13   ar
    23    12    15    1
    24    13    14    1
    25    14    16    3
    26    15    25    1
    27    15    26    1
    28    17    27    1
    29    17    28    1
    30    17    29    1
