@<TRIPOS>MOLECULE
*****
 29 30 0 0 0
SMALL
GASTEIGER
Energy = 0

@<TRIPOS>ATOM
      1 C          -3.3096    2.4058   -0.2581 C.ar    1  LIG1       -0.0504
      2 C          -2.6140    1.4977   -1.0643 C.ar    1  LIG1       -0.0578
      3 C          -1.3002    1.1328   -0.7538 C.ar    1  LIG1       -0.0477
      4 C          -0.6654    1.6650    0.3725 C.ar    1  LIG1        0.0128
      5 C          -1.3526    2.5901    1.1649 C.ar    1  LIG1       -0.0477
      6 C          -2.6636    2.9602    0.8515 C.ar    1  LIG1       -0.0578
      7 S           1.0142    1.2475    0.8093 S.3     1  LIG1       -0.0881
      8 C           1.0554   -0.5394    0.6291 C.ar    1  LIG1        0.0319
      9 C           0.1137   -1.3083    1.3289 C.ar    1  LIG1       -0.0466
     10 C           0.1054   -2.6954    1.2109 C.ar    1  LIG1       -0.0589
     11 C           1.0581   -3.3320    0.4179 C.ar    1  LIG1       -0.0397
     12 C           2.0605   -2.6016   -0.2351 C.ar    1  LIG1        0.0432
     13 C           2.0249   -1.1900   -0.1642 C.ar    1  LIG1        0.0860
     14 C           3.0008   -0.4280   -0.8934 C.1     1  LIG1        0.1021
     15 N           2.9155   -3.2967   -1.1120 N.pl3   1  LIG1       -0.3569
     16 N           3.8178    0.1484   -1.4849 N.1     1  LIG1       -0.1908
     17 C          -4.7055    2.8197   -0.6192 C.3     1  LIG1       -0.0397
     18 H          -3.0888    1.0728   -1.9463 H       1  LIG1        0.0621
     19 H          -0.7823    0.4360   -1.4079 H       1  LIG1        0.0629
     20 H          -0.8715    3.0381    2.0316 H       1  LIG1        0.0629
     21 H          -3.1729    3.6882    1.4791 H       1  LIG1        0.0621
     22 H          -0.6349   -0.8308    1.9586 H       1  LIG1        0.0629
     23 H          -0.6503   -3.2813    1.7290 H       1  LIG1        0.0618
     24 H           1.0152   -4.4142    0.3145 H       1  LIG1        0.0636
     25 H           3.0735   -4.2689   -0.8610 H       1  LIG1        0.1424
     26 H           3.7872   -2.8228   -1.3411 H       1  LIG1        0.1424
     27 H          -5.3012    1.9478   -0.9089 H       1  LIG1        0.0278
     28 H          -4.6821    3.5307   -1.4510 H       1  LIG1        0.0278
     29 H          -5.2113    3.2940    0.2284 H       1  LIG1        0.0278
@<TRIPOS>BOND
     1     1     2   ar
     2     6     1   ar
     3     1    17    1
     4     2     3   ar
     5     2    18    1
     6     3     4   ar
     7     3    19    1
     8     4     5   ar
     9     4     7    1
    10     5     6   ar
    11     5    20    1
    12     6    21    1
    13     7     8    1
    14     8     9   ar
    15    13     8   ar
    16     9    10   ar
    17     9    22    1
    18    10    11   ar
    19    10    23    1
    20    11    12   ar
    21    11    24    1
    22    12    13   ar
    23    12    15    1
    24    13    14    1
    25    14    16    3
    26    15    25    1
    27    15    26    1
    28    17    27    1
    29    17    28    1
    30    17    29    1
