@<TRIPOS>MOLECULE
*****
 26 27 0 0 0
SMALL
GASTEIGER
Energy = 0

@<TRIPOS>ATOM
      1 C          -3.1831    2.2320    0.7000 C.ar    1  LIG1        0.0410
      2 C          -2.3006    1.4636    1.4559 C.ar    1  LIG1       -0.0423
      3 C          -1.0499    1.1231    0.9316 C.ar    1  LIG1       -0.0466
      4 C          -0.6843    1.5394   -0.3544 C.ar    1  LIG1        0.0129
      5 C          -1.5759    2.3210   -1.0991 C.ar    1  LIG1       -0.0466
      6 C          -2.8250    2.6653   -0.5744 C.ar    1  LIG1       -0.0423
      7 S           0.9073    1.1426   -1.0585 S.3     1  LIG1       -0.0881
      8 C           1.0152   -0.6277   -0.7768 C.ar    1  LIG1        0.0319
      9 C           0.0984   -1.4586   -1.4370 C.ar    1  LIG1       -0.0466
     10 C           0.1280   -2.8363   -1.2412 C.ar    1  LIG1       -0.0589
     11 C           1.0897   -3.3995   -0.4038 C.ar    1  LIG1       -0.0397
     12 C           2.0641   -2.6059    0.2170 C.ar    1  LIG1        0.0432
     13 C           1.9931   -1.2028    0.0620 C.ar    1  LIG1        0.0860
     14 C           2.9336   -0.3705    0.7591 C.1     1  LIG1        0.1021
     15 N           2.9220   -3.2241    1.1463 N.pl3   1  LIG1       -0.3569
     16 N           3.7161    0.2700    1.3307 N.1     1  LIG1       -0.1908
     17 CL         -4.7204    2.6532    1.3461 Cl      1  LIG1       -0.0835
     18 H          -2.5742    1.1320    2.4542 H       1  LIG1        0.0632
     19 H          -0.3678    0.5381    1.5437 H       1  LIG1        0.0629
     20 H          -1.3048    2.6723   -2.0925 H       1  LIG1        0.0629
     21 H          -3.5077    3.2733   -1.1621 H       1  LIG1        0.0632
     22 H          -0.6580   -1.0367   -2.0958 H       1  LIG1        0.0629
     23 H          -0.6057   -3.4722   -1.7311 H       1  LIG1        0.0618
     24 H           1.0741   -4.4750   -0.2384 H       1  LIG1        0.0636
     25 H           3.1060   -4.2062    0.9600 H       1  LIG1        0.1424
     26 H           3.7792   -2.7166    1.3585 H       1  LIG1        0.1424
@<TRIPOS>BOND
     1     1     2   ar
     2     6     1   ar
     3     1    17    1
     4     2     3   ar
     5     2    18    1
     6     3     4   ar
     7     3    19    1
     8     4     5   ar
     9     4     7    1
    10     5     6   ar
    11     5    20    1
    12     6    21    1
    13     7     8    1
    14     8     9   ar
    15    13     8   ar
    16     9    10   ar
    17     9    22    1
    18    10    11   ar
    19    10    23    1
    20    11    12   ar
    21    11    24    1
    22    12    13   ar
    23    12    15    1
    24    13    14    1
    25    14    16    3
    26    15    25    1
    27    15    26    1
