@<TRIPOS>MOLECULE
****
32 33 1 0 0
SMALL
USER_CHARGES


@<TRIPOS>ATOM
      1 C          -3.8278   -3.8582    0.0867 C.ar      1     ****    0.0000
      2 C          -3.4324   -5.2894    0.2528 C.ar      1     ****    0.0000
      3 C          -1.9610   -5.6012    0.1583 C.ar      1     ****    0.0000
      4 C          -1.0202   -4.4407    0.1987 C.ar      1     ****    0.0000
      5 C          -1.4760   -3.1620    0.1607 C.ar      1     ****    0.0000
      6 C          -2.9201   -2.8506    0.0368 C.ar      1     ****    0.0000
      7 C          -0.4755   -2.0438    0.1350 C.2       1     ****    0.0000
      8 N          -0.7430   -0.5824    0.8016 N.2       1     ****    0.0000
      9 N           0.2178    0.3592    0.6549 N.am      1     ****    0.0000
     10 C           0.5371    0.9451   -0.5433 C.2       1     ****    0.0000
     11 N           1.7901    1.5108   -0.6422 N.am      1     ****    0.0000
     12 C           2.1084    2.8292   -0.2989 C.ar      1     ****    0.0000
     13 S          -0.3859    0.9614   -1.8240 S.2       1     ****    0.0000
     14 C           3.4496    3.2518   -0.4700 C.ar      1     ****    0.0000
     15 C           3.8198    4.5536   -0.1586 C.ar      1     ****    0.0000
     16 C           2.8649    5.4601    0.3278 C.ar      1     ****    0.0000
     17 C           1.5361    5.0519    0.5081 C.ar      1     ****    0.0000
     18 C           1.1546    3.7497    0.2031 C.ar      1     ****    0.0000
     19 O          -3.3435   -1.5718   -0.1505 O.3       1     ****    0.0000
     20 H          -4.8971   -3.6250   -0.0474 H         1     ****    0.0000
     21 H          -4.1237   -6.0377   -0.1731 H         1     ****    0.0000
     22 H          -1.6544   -6.4791   -0.4357 H         1     ****    0.0000
     23 H           0.0618   -4.6473    0.2344 H         1     ****    0.0000
     24 H           0.5439   -2.1953   -0.2544 H         1     ****    0.0000
     25 H           0.8335    0.5609    1.4312 H         1     ****    0.0000
     26 H           2.5693    0.9104   -1.0088 H         1     ****    0.0000
     27 H           4.2053    2.5493   -0.8575 H         1     ****    0.0000
     28 H           4.8638    4.8782   -0.2986 H         1     ****    0.0000
     29 H           3.1606    6.4944    0.5683 H         1     ****    0.0000
     30 H           0.7901    5.7684    0.8890 H         1     ****    0.0000
     31 H           0.1046    3.4502    0.3485 H         1     ****    0.0000
     32 H          -4.3079   -1.5637   -0.2620 H         1     ****    0.0000
@<TRIPOS>BOND
     1     1     2     2
     2     1     6     1
     3     1    20     1
     4     2     3     1
     5     2    21     1
     6     3     4     2
     7     3    22     1
     8     4     5     1
     9     4    23     1
    10     5     6     2
    11     5     7     1
    12     6    19     1
    13     7     8     2
    14     7    24     1
    15     8     9     1
    16     9    10     1
    17     9    25     1
    18    10    11     1
    19    10    13     2
    20    11    12     1
    21    11    26     1
    22    12    14     2
    23    12    18     1
    24    14    15     1
    25    14    27     1
    26    15    16     2
    27    15    28     1
    28    16    17     1
    29    16    29     1
    30    17    18     2
    31    17    30     1
    32    18    31     1
    33    19    32     1
