@<TRIPOS>MOLECULE
****
32 33 1 0 0
SMALL
USER_CHARGES


@<TRIPOS>ATOM
      1 C          -3.8199   -3.4322    0.2858 C.ar      1     ****    0.0000
      2 C          -3.4958   -4.8002   -0.2265 C.ar      1     ****    0.0000
      3 C          -2.0693   -5.2241    0.0179 C.ar      1     ****    0.0000
      4 C          -1.0346   -4.1459    0.0670 C.ar      1     ****    0.0000
      5 C          -1.4086   -2.8601    0.2944 C.ar      1     ****    0.0000
      6 C          -2.8338   -2.5315    0.5150 C.ar      1     ****    0.0000
      7 C          -0.3689   -1.7902    0.4357 C.2       1     ****    0.0000
      8 N          -0.7094   -0.2709    0.5267 N.2       1     ****    0.0000
      9 N           0.2690    0.6324    0.2897 N.am      1     ****    0.0000
     10 C           0.7809    0.9098   -0.9520 C.2       1     ****    0.0000
     11 N           1.9291    1.5864   -0.9863 N.am      1     ****    0.0000
     12 C           2.1261    2.8655   -0.4645 C.ar      1     ****    0.0000
     13 S           0.1563    0.4428   -2.3239 S.2       1     ****    0.0000
     14 C           3.4302    3.4137   -0.5523 C.ar      1     ****    0.0000
     15 C           3.6970    4.6776   -0.0429 C.ar      1     ****    0.0000
     16 C           2.6742    5.4245    0.5596 C.ar      1     ****    0.0000
     17 C           1.3777    4.8983    0.6445 C.ar      1     ****    0.0000
     18 C           1.0981    3.6338    0.1394 C.ar      1     ****    0.0000
     19 O          -4.4643   -5.7334   -0.4095 O.3       1     ****    0.0000
     20 H          -4.8699   -3.1716    0.4954 H         1     ****    0.0000
     21 H          -1.8669   -6.1863    0.5143 H         1     ****    0.0000
     22 H           0.0251   -4.4189   -0.0560 H         1     ****    0.0000
     23 H          -3.1047   -1.5330    0.8948 H         1     ****    0.0000
     24 H           0.6986   -2.0421    0.5373 H         1     ****    0.0000
     25 H           0.7096    1.1115    1.0644 H         1     ****    0.0000
     26 H           2.7611    1.1157   -1.4205 H         1     ****    0.0000
     27 H           4.2427    2.8345   -1.0208 H         1     ****    0.0000
     28 H           4.7149    5.0947   -0.1104 H         1     ****    0.0000
     29 H           2.8900    6.4275    0.9630 H         1     ****    0.0000
     30 H           0.5764    5.4943    1.1112 H         1     ****    0.0000
     31 H           0.0679    3.2510    0.2104 H         1     ****    0.0000
     32 H          -4.0719   -6.6136   -0.2892 H         1     ****    0.0000
@<TRIPOS>BOND
     1     1     2     2
     2     1     6     1
     3     1    20     1
     4     2     3     1
     5     2    19     1
     6     3     4     2
     7     3    21     1
     8     4     5     1
     9     4    22     1
    10     5     6     2
    11     5     7     1
    12     6    23     1
    13     7     8     2
    14     7    24     1
    15     8     9     1
    16     9    10     1
    17     9    25     1
    18    10    11     1
    19    10    13     2
    20    11    12     1
    21    11    26     1
    22    12    14     2
    23    12    18     1
    24    14    15     1
    25    14    27     1
    26    15    16     2
    27    15    28     1
    28    16    17     1
    29    16    29     1
    30    17    18     2
    31    17    30     1
    32    18    31     1
    33    19    32     1
