@<TRIPOS>MOLECULE
****
33 34 1 0 0
SMALL
USER_CHARGES


@<TRIPOS>ATOM
      1 C          -3.6846   -3.3557   -0.1411 C.ar      1     ****    0.0000
      2 C          -3.3232   -4.7589    0.2465 C.ar      1     ****    0.0000
      3 C          -1.9170   -5.1841   -0.0918 C.ar      1     ****    0.0000
      4 C          -0.8719   -4.1192   -0.1510 C.ar      1     ****    0.0000
      5 C          -1.2485   -2.8231   -0.2922 C.ar      1     ****    0.0000
      6 C          -2.6820   -2.4699   -0.3671 C.ar      1     ****    0.0000
      7 C          -0.2091   -1.7512   -0.4195 C.2       1     ****    0.0000
      8 N          -0.5492   -0.2258   -0.5469 N.2       1     ****    0.0000
      9 N           0.4246    0.6815   -0.3060 N.am      1     ****    0.0000
     10 C           0.9375    0.9540    0.9366 C.2       1     ****    0.0000
     11 N           2.0873    1.6275    0.9738 N.am      1     ****    0.0000
     12 C           2.2915    2.9072    0.4573 C.ar      1     ****    0.0000
     13 S           0.3120    0.4818    2.3065 S.2       1     ****    0.0000
     14 C           3.5966    3.4512    0.5570 C.ar      1     ****    0.0000
     15 C           3.8698    4.7175    0.0576 C.ar      1     ****    0.0000
     16 C           2.8529    5.4700   -0.5476 C.ar      1     ****    0.0000
     17 C           1.5566    4.9465   -0.6484 C.ar      1     ****    0.0000
     18 C           1.2705    3.6796   -0.1531 C.ar      1     ****    0.0000
     19 O          -4.2776   -5.6946    0.4840 O.3       1     ****    0.0000
     20 O          -4.9849   -2.9642   -0.2049 O.3       1     ****    0.0000
     21 H          -1.7601   -6.1177   -0.6553 H         1     ****    0.0000
     22 H           0.1903   -4.4060   -0.1049 H         1     ****    0.0000
     23 H          -2.9570   -1.4305   -0.6095 H         1     ****    0.0000
     24 H           0.8646   -1.9956   -0.4412 H         1     ****    0.0000
     25 H           0.8593    1.1705   -1.0780 H         1     ****    0.0000
     26 H           2.9160    1.1547    1.4122 H         1     ****    0.0000
     27 H           4.4038    2.8686    1.0297 H         1     ****    0.0000
     28 H           4.8874    5.1327    0.1369 H         1     ****    0.0000
     29 H           3.0731    6.4754   -0.9413 H         1     ****    0.0000
     30 H           0.7603    5.5468   -1.1183 H         1     ****    0.0000
     31 H           0.2402    3.2999   -0.2356 H         1     ****    0.0000
     32 H          -3.8995   -6.5705    0.3030 H         1     ****    0.0000
     33 H          -5.0196   -2.0083   -0.3715 H         1     ****    0.0000
@<TRIPOS>BOND
     1     1     2     2
     2     1     6     1
     3     1    20     1
     4     2     3     1
     5     2    19     1
     6     3     4     2
     7     3    21     1
     8     4     5     1
     9     4    22     1
    10     5     6     2
    11     5     7     1
    12     6    23     1
    13     7     8     2
    14     7    24     1
    15     8     9     1
    16     9    10     1
    17     9    25     1
    18    10    11     1
    19    10    13     2
    20    11    12     1
    21    11    26     1
    22    12    14     2
    23    12    18     1
    24    14    15     1
    25    14    27     1
    26    15    16     2
    27    15    28     1
    28    16    17     1
    29    16    29     1
    30    17    18     2
    31    17    30     1
    32    18    31     1
    33    19    32     1
    34    20    33     1
