@<TRIPOS>MOLECULE
****
32 33 1 0 0
SMALL
USER_CHARGES


@<TRIPOS>ATOM
      1 C          -3.8737   -3.6218   -0.1602 C.ar      1     ****    0.0000
      2 C          -3.5379   -5.0256    0.2357 C.ar      1     ****    0.0000
      3 C          -2.1047   -5.4111   -0.0332 C.ar      1     ****    0.0000
      4 C          -1.0829   -4.3196    0.0051 C.ar      1     ****    0.0000
      5 C          -1.4671   -3.0274   -0.1614 C.ar      1     ****    0.0000
      6 C          -2.8985   -2.6965   -0.3319 C.ar      1     ****    0.0000
      7 C          -0.4396   -1.9364   -0.1771 C.2       1     ****    0.0000
      8 N          -0.7587   -0.4230   -0.5977 N.2       1     ****    0.0000
      9 N           0.2418    0.4846   -0.5200 N.am      1     ****    0.0000
     10 C           0.6067    1.1151    0.6424 C.2       1     ****    0.0000
     11 N           1.8634    1.6982    0.6727 N.am      1     ****    0.0000
     12 C           2.1554    3.0235    0.3236 C.ar      1     ****    0.0000
     13 S          -0.2617    1.1642    1.9603 S.2       1     ****    0.0000
     14 C           3.5009    3.4512    0.4282 C.ar      1     ****    0.0000
     15 C           3.8521    4.7577    0.1123 C.ar      1     ****    0.0000
     16 C           2.8692    5.6649   -0.3152 C.ar      1     ****    0.0000
     17 C           1.5339    5.2529   -0.4314 C.ar      1     ****    0.0000
     18 C           1.1749    3.9451   -0.1191 C.ar      1     ****    0.0000
     19 O          -4.4971   -5.9836    0.3161 O.3       1     ****    0.0000
     20 Cl          3.3074    7.2883   -0.7004 Cl        1     ****    0.0000
     21 H          -4.9291   -3.3494   -0.3237 H         1     ****    0.0000
     22 H          -1.8879   -6.3314   -0.5982 H         1     ****    0.0000
     23 H          -0.0231   -4.5855    0.1423 H         1     ****    0.0000
     24 H          -3.1842   -1.6692   -0.6109 H         1     ****    0.0000
     25 H           0.6114   -2.1347    0.0860 H         1     ****    0.0000
     26 H           0.8374    0.6356   -1.3229 H         1     ****    0.0000
     27 H           2.6659    1.1020    0.9934 H         1     ****    0.0000
     28 H           4.2784    2.7477    0.7680 H         1     ****    0.0000
     29 H           4.9048    5.0727    0.2046 H         1     ****    0.0000
     30 H           0.7582    5.9610   -0.7672 H         1     ****    0.0000
     31 H           0.1202    3.6420   -0.2137 H         1     ****    0.0000
     32 H          -4.0980   -6.8420    0.0992 H         1     ****    0.0000
@<TRIPOS>BOND
     1     1     2     2
     2     1     6     1
     3     1    21     1
     4     2     3     1
     5     2    19     1
     6     3     4     2
     7     3    22     1
     8     4     5     1
     9     4    23     1
    10     5     6     2
    11     5     7     1
    12     6    24     1
    13     7     8     2
    14     7    25     1
    15     8     9     1
    16     9    10     1
    17     9    26     1
    18    10    11     1
    19    10    13     2
    20    11    12     1
    21    11    27     1
    22    12    14     2
    23    12    18     1
    24    14    15     1
    25    14    28     1
    26    15    16     2
    27    15    29     1
    28    16    17     1
    29    16    20     1
    30    17    18     2
    31    17    30     1
    32    18    31     1
    33    19    32     1
